/*---------------------------------------------------------------------------*\
| =========                 |                                                 |
| \\      /  F ield         | OpenFOAM: The Open Source CFD Toolbox           |
|  \\    /   O peration     | Version:  1.4                                   |
|   \\  /    A nd           | Web:      http://www.openfoam.org               |
|    \\/     M anipulation  |                                                 |
\*---------------------------------------------------------------------------*/

FoamFile
{
    version         2.0;
    format          ascii;

    root            "";
    case            "";
    instance        "";
    local           "";

    class           dictionary;
    object          blockMeshDict;
}

// * * * * * * * * * * * * * * * * * * * * * * * * * * * * * * * * * * * * * //

convertToMeters 1e-3;

nx  5;  //25
nx5 25;

vertices
(
    (0 0.0 0)       // 0
    (2 0.0 0)       // 1
    (2 0.4 0)       // 2
    (0 0.4 0)       // 3
    (0 0.0 2)       // 4

    (2 0.0 2)       // 5
    (2 0.4 2)       // 6
    (0 0.4 2)       // 7
    (3 0.0 0)       // 8
    (3 0.4 0)       // 9

    (3 0.0 2)       //10
    (3 0.4 2)       //11
    (0 0.0 3)       //12
    (2 0.0 3)       //13
    (2 0.4 3)       //14

    (0 0.4 3)       //15
    (3 0.0 3)       //16
    (3 0.4 3)       //17
    (2 1.5 0)       //18
    (0 1.5 0)       //19

    (2 1.5 2)       //20
    (0 1.5 2)       //21
    (3 1.5 0)       //22
    (3 1.5 2)       //23
    (2 1.5 3)       //24

    (0 1.5 3)       //25
    (3 1.5 3)       //26
);

blocks          
(
    hex (0 1 2 3 4 5 6 7) ($nx5 $nx $nx5) simpleGrading (1 1 1)         // 0
    hex (1 8 9 2 5 10 11 6) ($nx $nx $nx5) simpleGrading (5 1 1)        // 1
    hex (4 5 6 7 12 13 14 15) ($nx5 $nx $nx) simpleGrading (1 1 5)      // 2
    hex (5 10 11 6 13 16 17 14) ($nx $nx $nx) simpleGrading (5 1 5)     // 3
    hex (3 2 18 19 7 6 20 21) ($nx5 $nx $nx5) simpleGrading (1 5 1)     // 4
    hex (2 9 22 18 6 11 23 20) ($nx $nx $nx5) simpleGrading (5 5 1)     // 5
    hex (7 6 20 21 15 14 24 25) ($nx5 $nx $nx) simpleGrading (1 5 5)    // 6
    hex (6 11 23 20 14 17 26 24) ($nx $nx $nx) simpleGrading (5 5 5)    // 7
);

edges
(
);

patches         
(
	wall bottom
	(
		(0 1 5 4)
        (4 5 13 12)
        (5 10 16 13)
        (1 8 10 5)
	)
	patch top
	(
		(21 20 18 19)
        (20 23 22 18)
        (25 24 20 21)
        (24 26 23 20)
	)
	symmetryPlane left
	(
		(4 12 15 7)
        (0 4 7 3)
        (7 15 25 21)
        (3 7 21 19)
	)
	patch right
	(
		(16 10 11 17)
        (10 8 9 11)
        (11 9 22 23)
        (17 11 23 26)
	)
	symmetryPlane back
	(
		(1 0 3 2)
        (8 1 2 9)
        (2 3 19 18)
        (9 2 18 22)
	)
	patch front
	(
		(12 13 14 15)
        (13 16 17 14)
        (14 17 26 24)
        (15 14 24 25)
	)
);

mergePatchPairs
(
);

// ************************************************************************* //
