/*--------------------------------*- C++ -*----------------------------------*\
| =========                 |                                                 |
| \\      /  F ield         | OpenFOAM: The Open Source CFD Toolbox           |
|  \\    /   O peration     | Version:  1.7.1                                 |
|   \\  /    A nd           | Web:      www.OpenFOAM.com                      |
|    \\/     M anipulation  |                                                 |
\*---------------------------------------------------------------------------*/

FoamFile
{
    version         2.0;
    format          ascii;
    class           dictionary;
    location        system;
    object          sampleDict;
}

// * * * * * * * * * * * * * * * * * * * * * * * * * * * * * * * * * * * * //

setFormat raw;

surfaceFormat raw;

interpolationScheme cellPoint;

// Fields to sample.
fields
(
    alpha1
);



sets
(
   
);


// Surface sampling definition: choice of
//      plane : values on plane defined by point, normal.
//      patch : values on patch.
//
// 1] patches are not triangulated by default
// 2] planes are always triangulated
// 3] iso-surfaces are always triangulated
surfaces
(
    interpolatedIso
    {
        // Iso surface for interpolated values only
        type            isoSurface;    // always triangulated
        isoField        alpha1;
        isoValue        0.5;
        interpolate     true;

        regularise      true;
    }
);


// *********************************************************************** //
