/*--------------------------------*- C++ -*----------------------------------*\
| =========                 |                                                 |
| \\      /  F ield         | OpenFOAM: The Open Source CFD Toolbox           |
|  \\    /   O peration     | Version:  2.1.x                                 |
|   \\  /    A nd           | Web:      www.OpenFOAM.org                      |
|    \\/     M anipulation  |                                                 |
\*---------------------------------------------------------------------------*/
FoamFile
{
    version     2.0;
    format      ascii;
    class       dictionary;
    location    "constant";
    object      dynamicMeshDict;
}
// * * * * * * * * * * * * * * * * * * * * * * * * * * * * * * * * * * * * * //

dynamicFvMesh   dynamicRefineFvMesh;

multiCritRefinementControls
{
    enableMultiCritRefinementControl  true;
    
    fields // must be scalarFields
    ();
    
    interface // must be a scalarField (only one dictionary!)
    (
/*
        alpha.water // refine interface (found based on snGrad of alpha > 0.1) 
        {
            innerRefLayers 0; // describes how many cell layers inside phase alpha are to be refined
            outerRefLayers 0; // describes how many cell layers outside phase alpha are to be refined
            maxRefineLevel 1; // max refinement layers; Default: maxRefinement from dynamicRefineFvMeshCoeffs is used
            nAddLayers 0; // default: nAddLayers=0 
        }
*/
    );

   
    gradients // must be scalars
    ();
    
    curls // must be vectors
    ();
   
    regions
    (
/*        boxToCell
        {
            minLevel 2;
            
            //box (0 0.003 0)(0.001 0.0055 1);
           // box (-1 0 0)(1 1 1);
            box (-1 0 0)(1 0.03 2);
        }

*/
                boxToCell
        {
            minLevel 1;
            
            //box (0 0.003 0)(0.001 0.0055 1);
            box (0 0 -1)(2 1 1);
           
        }
        
    );


}

dynamicRefineFvMeshCoeffs
{
    // Extra entries for balancing
    enableBalancing false;
    allowableImbalance 0.0;

    // How often to refine
    refineInterval  1;
    
    // Field to be refinement on (set it to 'internalRefinementField' to use the
    // refinementControls dictionary entries above)
    field          alpha.water;
    
    // Refine field inbetween lower..upper
    lowerRefineLevel -1;
    upperRefineLevel 1; // maxRefinement+0.5
    
    // If value < unrefineLevel unrefine
    unrefineLevel   -0.5;
    
    // Have slower than 2:1 refinement
    nBufferLayers   4;
    
    // Refine cells only up to maxRefinement levels
    maxRefinement   3;
    
    // Stop refinement if maxCells reached
    maxCells        200000;
    
    // Flux field and corresponding velocity field. Fluxes on changed
    // faces get recalculated by interpolating the velocity. Use 'none'
    // on surfaceScalarFields that do not need to be reinterpolated.
    correctFluxes
    (

        (nHatf none)
        (rho*phi none)
        (ghf none)
        (alphaPhi none)
        (rhoPhi none)
        (phi U)
        (mySurfaceScalarField none)
    );

    mapSurfaceFields
    (
        mySurfaceScalarField
        mySurfaceVectorField
        mySurfaceScalarField_0
        mySurfaceVectorField_0
    );
    
    // Write the refinement level as a volScalarField
    dumpLevel       true;
}


// ************************************************************************* //
