/*--------------------------------*- C++ -*----------------------------------*\
| =========                 |                                                 |
| \\      /  F ield         | OpenFOAM: The Open Source CFD Toolbox           |
|  \\    /   O peration     | Version:  4.x                                   |
|   \\  /    A nd           | Web:      www.OpenFOAM.org                      |
|    \\/     M anipulation  |                                                 |
\*---------------------------------------------------------------------------*/
FoamFile
{
    version     2.0;
    format      ascii;
    class       dictionary;
    location    "constant";
    object      dynamicMeshDict;
}
// * * * * * * * * * * * * * * * * * * * * * * * * * * * * * * * * * * * * * //

dynamicFvMesh   dynamicRefineBalancedFvMesh;

refinementControls
{
    enableRefinementControl  true;
    
    interface
    (
        alpha.water
        {
            innerRefLayers 3;
            outerRefLayers 5;
            //nAddLayers 2;
        }
    );

    fields
    (
        alpha.water (0.1 1.1 1)
    );
    
    gradients
    (
        alpha.water (0.1 1.1 2)
    );
    
    curls
    (
    );
    
    regions
    (
        boxToCell
        {
            minLevel 1;
            box  (0.325 0.325 -0.05) (0.675 0.675 0.3);
        }
    );
}

dynamicRefineFvMeshCoeffs
{
    // for load balancing
    enableBalancing true;
    allowableImbalance 0.1;

    // How often to refine
    refineInterval  15;

    // Field to be refinement on
    field           internalRefinementField;

    // Refine field inbetween lower..upper
    lowerRefineLevel 0.5;
    upperRefineLevel 2.5;

    // If value < unrefineLevel unrefine
    unrefineLevel   -0.5;

    // Have slower than 2:1 refinement
    nBufferLayers   3;

    // Refine cells only up to maxRefinement levels
    maxRefinement   2;

    // Stop refinement if maxCells reached
    maxCells        300000;

    // Flux field and corresponding velocity field. Fluxes on changed
    // faces get recalculated by interpolating the velocity. Use 'none'
    // on surfaceScalarFields that do not need to be reinterpolated.
    correctFluxes
    (
        (phi none)
        (nHatf none)
        (rhoPhi none)
        (alphaPhi none)
        (ghf none)
    );

    mapSurfaceFields
    (
        Uf
        Uf_0
    );

    // Write the refinement level as a volScalarField
    dumpLevel       true;
}


// ************************************************************************* //
