/*--------------------------------*- C++ -*----------------------------------*\
| =========                 |                                                 |
| \\      /  F ield         | OpenFOAM: The Open Source CFD Toolbox           |
|  \\    /   O peration     | Version:  2.0.0                                 |
|   \\  /    A nd           | Web:      www.OpenFOAM.com                      |
|    \\/     M anipulation  |                                                 |
\*---------------------------------------------------------------------------*/
FoamFile
{
    version     2.0;
    format      ascii;
    class       dictionary;
    location    "system";
    object      controlDict;
}
// * * * * * * * * * * * * * * * * * * * * * * * * * * * * * * * * * * * * * //

application     interDyMFoam;

startFrom       latestTime;

startTime       0;

stopAt          endTime;

endTime         0.1;

deltaT          1e-7;

writeControl    adjustableRunTime;
//writeControl    runTime;

writeInterval   1e-02;

purgeWrite      0;

writeFormat     binary;

writePrecision  7;

timeFormat      general;

timePrecision   7;

runTimeModifiable yes;

adjustTimeStep  yes;

maxCo           0.4;
maxAlphaCo      0.4;

maxDeltaT       1;

libs
(
   "libdynamicFvMesh.so"		// All AMR and LB enhancements
   "libtwoPhaseProperties.so" // fully specified mapping in myConstantAlphaContactAngle
);
